/*--------------------------------*- C++ -*----------------------------------*\
  =========                 |
  \\      /  F ield         | OpenFOAM: The Open Source CFD Toolbox
   \\    /   O peration     | Website:  https://openfoam.org
    \\  /    A nd           | Version:  6
     \\/     M anipulation  |
\*---------------------------------------------------------------------------*/
FoamFile
{
    version     2.0;
    format      ascii;
    class       dictionary;
    location    "system";
    object      controlDict;
}
// * * * * * * * * * * * * * * * * * * * * * * * * * * * * * * * * * * * * * //

application     rhoPimpleFoam;

startFrom       latestTime;//startTime;

startTime       0;

stopAt          endTime;

endTime         1000;

deltaT          1;

writeControl    adjustableRunTime;

writeInterval   50;

purgeWrite      0;

writeFormat     ascii;

writePrecision  6;

writeCompression on;

timeFormat      general;

timePrecision   6;

runTimeModifiable true;

adjustTimeStep  yes;

maxCo           0.7;

maxDeltaT	5.0;


functions
{
	forceCoeffs1
	{
	    // Mandatory entries
	    type            forceCoeffs;
	    libs             ("libforces.so");
	    patches         ( cylinder );


	    // Optional entries

	    // Field names
	    p               p;
	    U               U;
	    rho             rhoInf;
	    rhoInf	    1;         // Redundant for incompressible
	    // Reference pressure [Pa]
	    pRef            0;

	    // Include porosity effects?
	    porosity        no;

	    // Store and write volume field representations of forces and moments
	    writeFields     no;

	    // Centre of rotation for moment calculations
	    CofR            (0 0 0);

	    // Lift direction
	    liftDir         (0 1 0);

	    // Drag direction
	    dragDir         (1 0 0);

	    // Pitch axis
	    pitchAxis       (0 0 1);

	    // Freestream velocity magnitude [m/s]
	    magUInf         1.6e-3;

	    // Reference length [m]
	    lRef            1;

	    // Reference area [m2]
	    Aref            2.8;
	}
}

// ************************************************************************* //
