/*--------------------------------*- C++ -*----------------------------------*\
  =========                 |
  \\      /  F ield         | OpenFOAM: The Open Source CFD Toolbox
   \\    /   O peration     | Website:  https://openfoam.org
    \\  /    A nd           | Version:  6
     \\/     M anipulation  |
\*---------------------------------------------------------------------------*/
FoamFile
{
    version     2.0;
    format      ascii;
    class       dictionary;
    object      fvOptions;
}

// * * * * * * * * * * * * * * * * * * * * * * * * * * * * * * * * * * * * * //
solidificationMeltingSource1
{
    type            solidificationMeltingSource;
    active          yes;

    selectionMode   all;

    L               187210;
    thermoMode      thermo;
    beta            5.53e-04;
    rhoRef          4400;

    Tsol	    422.15;
    Tliq	    424.15;
    Cu		    1e5;
    q		    1;
    g 		    (0 0 0);
}

/*
 \table
        Property   | Description                     | Required | Default value
        Tsol       | Solidus temperature [K]             | yes      |
        Tliq       | Liquidus temperature [K]            | no       | Tsol
        alpha1e    | Max eutectic melt fraction [0-1[    | no       | 0
        L          | Latent heat of fusion [J/kg]        | yes      |
        relax      | Relaxation coefficient [0-1]        | no       | 0.9
        thermoMode | Thermo mode [thermo|lookup]         | yes      |
        rhoRef     | Reference (solid) density [kg/m^3]  | yes      |
        rho        | Name of density field               | no       | rho
        T          | Name of temperature field           | no       | T
        Cp         | Name of specific heat field         | no       | Cp
        U          | Name of velocity field              | no       | U
        phi        | Name of flux field                  | no       | phi
        Cu         | Model coefficient [1/s]             | no       | 100000
        q          | Model coefficient                   | no       | 0.001
        beta       | Thermal expansion coefficient [1/K] | yes      |
        g          | Accelerartion due to gravity        | no       |
    \endtable
*/
// ************************************************************************* //
