/*--------------------------------*- C++ -*----------------------------------*\
| =========                 |                                                 |
| \\      /  F ield         | OpenFOAM: The Open Source CFD Toolbox           |
|  \\    /   O peration     | Version:  2.4.0                                 |
|   \\  /    A nd           | Web:      www.OpenFOAM.org                      |
|    \\/     M anipulation  |                                                 |
\*---------------------------------------------------------------------------*/
FoamFile
{
    version     2.0;
    format      ascii;
    class       volVectorField;
    object      U;
}
// * * * * * * * * * * * * * * * * * * * * * * * * * * * * * * * * * * * * * //
Uin		(1.6e-3 0 0);

dimensions      [0 1 -1 0 0 0 0];

internalField   uniform $Uin;

boundaryField
{
    inlet
    {
        type            fixedValue;
        value           uniform $Uin;
    }

    outlet
    {
        type            zeroGradient;
    }

    top
    {
        type            symmetryPlane;
    }

    bottom
    {
        type            symmetryPlane;
    } 

    cylinder
    {
        type            noSlip;
    }

    frontAndBack
    {
        type            empty;
    }

}

// ************************************************************************* //
